 &NAML
   TABCH(1)='P00000THETA_PRIM',
   TABCH(2)='P85000THETA_PRIM',
   TABCH(3)='P70000THETA_PRIM',
   TABCH(4)='P50000THETA_PRIM',
   TABCH(5)='P40000THETA_PRIM',
   TABCH(6)='P30000THETA_PRIM',
   TABCH(7)='P20000THETA_PRIM',
   TABCH(8)='P10000THETA_PRIM',
 &END
