 &NAML
   TABCH(1)='P50000SNOW',
   TABCH(2)='P70000SNOW',
   TABCH(3)='P85000SNOW',
   TABCH(4)='P00000SNOW',
 &END
