 &NAML
   TABCH(1)='P00000FLX_DST',
   TABCH(2)='CLSVENT.ZONAL',
   TABCH(3)='CLSVENT.MERIDIEN',
 &END
