 &NAML
   TABCH(1)='P00000TKE',
   TABCH(2)='P85000TKE',
   TABCH(3)='P70000TKE',
   TABCH(4)='P50000TKE',
   TABCH(5)='P40000TKE',
   TABCH(6)='P30000TKE',
   TABCH(7)='P20000TKE',
   TABCH(8)='P10000TKE',
 &END
