 &NAML
   TABCH(1)='SURFNEBUL.BASSE',
 &END
