 &NAML
   TABCH(1)='P40000VIRT_P_TEM',
   TABCH(2)='P50000VIRT_P_TEM',
   TABCH(3)='P60000VIRT_P_TEM',
   TABCH(4)='P70000VIRT_P_TEM',
   TABCH(5)='P80000VIRT_P_TEM',
   TABCH(6)='P85000VIRT_P_TEM',
   TABCH(7)='P90000VIRT_P_TEM',
   TABCH(8)='P92500VIRT_P_TEM',
   TABCH(9)='P95000VIRT_P_TEM',
   TABCH(10)='P00000VIRT_P_TEM',
 &END
