 &NAML
   TABCH(1)='SURFRAYT THER DE',
 &END

