 &NAML
   TABCH(1)='P70000TEMPERATUR',
 &END
