 &NAML
   TABCH(1)='SURFACCGRAUPEL',
 &END
