 &NAML
   TABCH(1)='SURFPREC.NEI.GEC',
 &END
