 &NAML
   TABCH(1)='P50000THETA_PRIM',
   TABCH(2)='P70000THETA_PRIM',
   TABCH(3)='P85000THETA_PRIM',
   TABCH(4)='P00000THETA_PRIM',
 &END
