 &NAML
   TABCH(1)='P50000ABS_VORTIC',
   TABCH(2)='P70000ABS_VORTIC',
   TABCH(3)='P85000ABS_VORTIC',
   TABCH(4)='P00000ABS_VORTIC',
 &END
