 &NAML
   TABCH(1)='P00000CLOUD_WATER',
   TABCH(2)='P85000CLOUD_WATER',
   TABCH(3)='P70000CLOUD_WATER',
   TABCH(4)='P50000CLOUD_WATER',
   TABCH(5)='P40000CLOUD_WATER',
   TABCH(6)='P30000CLOUD_WATER',
   TABCH(7)='P20000CLOUD_WATER',
   TABCH(8)='P10000CLOUD_WATER',
 &END
