 &NAML
   TABCH(1)='P50000TEMPE_POTE',
   TABCH(2)='P70000TEMPE_POTE',
   TABCH(3)='P85000TEMPE_POTE',
   TABCH(4)='P00000TEMPE_POTE',
 &END
