 &NAML
   TABCH(1)='CLSV.RAF.MOD.XFU',
 &END
