 &NAML
   TABCH(1)='P50000VERT.VELOC',
   TABCH(2)='P70000VERT.VELOC',
   TABCH(3)='P85000VERT.VELOC',
   TABCH(4)='P00000VERT.VELOC',
 &END
