 &NAML
   TABCH(1)='P10000EXT_DST',
   TABCH(2)='P20000EXT_DST',
   TABCH(3)='P30000EXT_DST',
   TABCH(4)='P40000EXT_DST',
   TABCH(5)='P50000EXT_DST',
   TABCH(6)='P60000EXT_DST',
   TABCH(7)='P70000EXT_DST',
   TABCH(8)='P80000EXT_DST',
   TABCH(9)='P85000EXT_DST',
   TABCH(10)='P90000EXT_DST',
   TABCH(11)='P92500EXT_DST',
   TABCH(12)='P95000EXT_DST',
   TABCH(13)='P00000EXT_DST',
 &END
