 &NAML
   TABCH(1)='SURFCAPE.MOD.XFU',
 &END
