 &NAML
   TABCH(1)='CLSHUMI.RELATIVE',
 &END
