 &NAML
   TABCH(1)='P00000ICE_CRYSTAL',
   TABCH(2)='P85000ICE_CRYSTAL',
   TABCH(3)='P70000ICE_CRYSTAL',
   TABCH(4)='P50000ICE_CRYSTAL',
   TABCH(5)='P40000ICE_CRYSTAL',
   TABCH(6)='P30000ICE_CRYSTAL',
   TABCH(7)='P20000ICE_CRYSTAL',
   TABCH(8)='P10000ICE_CRYSTAL',
 &END
