 &NAML
   TABCH(1)='P40000DDEP_DST',
   TABCH(2)='P50000DDEP_DST',
   TABCH(3)='P60000DDEP_DST',
   TABCH(4)='P70000DDEP_DST',
   TABCH(5)='P80000DDEP_DST',
   TABCH(6)='P85000DDEP_DST',
   TABCH(7)='P90000DDEP_DST',
   TABCH(8)='P92500DDEP_DST',
   TABCH(9)='P95000DDEP_DST',
   TABCH(10)='P00000DDEP_DST',
 &END
