 &NAML
   TABCH(1)='P00000ABS_VORTICITY',
   TABCH(2)='P85000ABS_VORTICITY',
   TABCH(3)='P70000ABS_VORTICITY',
   TABCH(4)='P50000ABS_VORTICITY',
   TABCH(5)='P40000ABS_VORTICITY',
   TABCH(6)='P30000ABS_VORTICITY',
   TABCH(7)='P20000ABS_VORTICITY',
   TABCH(8)='P10000ABS_VORTICITY',
 &END
