 &NAML
   TABCH(1)='P00000RAIN',
   TABCH(2)='P85000RAIN',
   TABCH(3)='P70000RAIN',
   TABCH(4)='P50000RAIN',
   TABCH(5)='P40000RAIN',
   TABCH(6)='P30000RAIN',
   TABCH(7)='P20000RAIN',
   TABCH(8)='P10000RAIN',
 &END
