 &NAML
   TABCH(1)='P50000GEOPOTENTI',
   TABCH(2)='P70000GEOPOTENTI',
   TABCH(3)='P85000GEOPOTENTI',
   TABCH(4)='P00000GEOPOTENTI',
 &END
