 &NAML
   TABCH(1)='P50000RAIN',
   TABCH(2)='P70000RAIN',
   TABCH(3)='P85000RAIN',
   TABCH(4)='P00000RAIN',
 &END
