 &NAML
   TABCH(1)='SURFNEBUL.MOYENN',
 &END
