 &NAML
   TABCH(1)='P00000DIVERGENCE',
   TABCH(2)='P85000DIVERGENCE',
   TABCH(3)='P70000DIVERGENCE',
   TABCH(4)='P50000DIVERGENCE',
   TABCH(5)='P40000DIVERGENCE',
   TABCH(6)='P30000DIVERGENCE',
   TABCH(7)='P20000DIVERGENCE',
   TABCH(8)='P10000DIVERGENCE',
 &END
