 &NAML
   TABCH(1)='P40000HDEP_DST',
   TABCH(2)='P50000HDEP_DST',
   TABCH(3)='P60000HDEP_DST',
   TABCH(4)='P70000HDEP_DST',
   TABCH(5)='P80000HDEP_DST',
   TABCH(6)='P85000HDEP_DST',
   TABCH(7)='P90000HDEP_DST',
   TABCH(8)='P92500HDEP_DST',
   TABCH(9)='P95000HDEP_DST',
   TABCH(10)='P00000HDEP_DST',
 &END
