 &NAML
   TABCH(1)='SURFPROP.VEGETAT',
   TABCH(2)='SURFIND.VEG.DOMI',
   TABCH(3)='SURFPROP.TERRE',
   TABCH(4)='SURFIND.TERREMER',
 &END
