 &NAML
   TABCH(1)='SURFPREC.EAU.CON',
 &END
