 &NAML
   TABCH(1)='P00000VITESSE_VE',
   TABCH(2)='P85000VITESSE_VE',
   TABCH(3)='P70000VITESSE_VE',
   TABCH(4)='P50000VITESSE_VE',
   TABCH(5)='P40000VITESSE_VE',
   TABCH(6)='P30000VITESSE_VE',
   TABCH(7)='P20000VITESSE_VE',
   TABCH(8)='P10000VITESSE_VE',
 &END
