 &NAML
   TABCH(1)='H01200VENT_MERID',
   TABCH(2)='H01100VENT_MERID',
   TABCH(3)='H01000VENT_MERID',
   TABCH(4)='H00900VENT_MERID',
   TABCH(5)='H00800VENT_MERID',
   TABCH(6)='H00700VENT_MERID',
   TABCH(7)='H00600VENT_MERID',
   TABCH(8)='H00500VENT_MERID',
   TABCH(9)='H00400VENT_MERID',
   TABCH(10)='H00300VENT_MERID',
   TABCH(11)='H00200VENT_MERID',
   TABCH(12)='H00100VENT_MERID',
   TABCH(13)='H00050VENT_MERID',
   TABCH(14)='H00002VENT_MERID',
 &END
