 &NAML
   TABCH(1)='P00000TEMPERATUR',
 &END
