 &NAML
   TABCH(1)='P00000THETA_VIRTUA',
   TABCH(2)='P85000THETA_VIRTUA',
   TABCH(3)='P70000THETA_VIRTUA',
   TABCH(4)='P50000THETA_VIRTUA',
   TABCH(5)='P40000THETA_VIRTUA',
   TABCH(6)='P30000THETA_VIRTUA',
   TABCH(7)='P20000THETA_VIRTUA',
   TABCH(8)='P10000THETA_VIRTUA',
 &END
