 &NAML
   TABCH(1)='SURFTOT.WAT.VAPO',
 &END
