 &NAML
   TABCH(1)='CLSTEMPERATURE',
 &END
