 &NAML
   TABCH(1)='P50000TEMPERATUR',
 &END
