 &NAML
   TABCH(1)='P00000VITESSE_VERTICALE',
   TABCH(2)='P85000VITESSE_VERTICALE',
   TABCH(3)='P70000VITESSE_VERTICALE',
   TABCH(4)='P50000VITESSE_VERTICALE',
   TABCH(5)='P40000VITESSE_VERTICALE',
   TABCH(6)='P30000VITESSE_VERTICALE',
   TABCH(7)='P20000VITESSE_VERTICALE',
   TABCH(8)='P10000VITESSE_VERTICALE',
 &END
