 &NAML
   TABCH(1)='SURFFLU.RAY.SOLA',
 &END

