 &NAML
   TABCH(1)='P40000RDEP_DST',
   TABCH(2)='P50000RDEP_DST',
   TABCH(3)='P60000RDEP_DST',
   TABCH(4)='P70000RDEP_DST',
   TABCH(5)='P80000RDEP_DST',
   TABCH(6)='P85000RDEP_DST',
   TABCH(7)='P90000RDEP_DST',
   TABCH(8)='P92500RDEP_DST',
   TABCH(9)='P95000RDEP_DST',
   TABCH(10)='P00000RDEP_DST',
 &END
