 &NAML
   TABCH(1)='P70000ZN_DST',
   TABCH(2)='P85000ZN_DST',
   TABCH(3)='P00000ZN_DST',
 &END
