 &NAML
   TABCH(1)='P40000THETA_EQUI',
   TABCH(2)='P50000THETA_EQUI',
   TABCH(3)='P60000THETA_EQUI',
   TABCH(4)='P70000THETA_EQUI',
   TABCH(5)='P80000THETA_EQUI',
   TABCH(6)='P85000THETA_EQUI',
   TABCH(7)='P90000THETA_EQUI',
   TABCH(8)='P92500THETA_EQUI',
   TABCH(9)='P95000THETA_EQUI',
   TABCH(10)='P00000THETA_EQUI',
 &END
