 &NAML
   TABCH(1)='P50000TKE',
   TABCH(2)='P70000TKE',
   TABCH(3)='P85000TKE',
   TABCH(4)='P00000TKE',
 &END
