 &NAML
   TABCH(1)='P00000SIM_REFLECTI',
   TABCH(2)='P85000SIM_REFLECTI',
   TABCH(3)='P70000SIM_REFLECTI',
   TABCH(4)='P50000SIM_REFLECTI',
   TABCH(5)='P40000SIM_REFLECTI',
   TABCH(6)='P30000SIM_REFLECTI',
   TABCH(7)='P20000SIM_REFLECTI',
   TABCH(8)='P10000SIM_REFLECTI',
 &END
