 &NAML
   TABCH(1)='P00000AOD_DST',
 &END
