 &NAML
   TABCH(1)='P50000VENT_MERID',
   TABCH(2)='P70000VENT_MERID',
   TABCH(3)='P85000VENT_MERID',
   TABCH(4)='P00000VENT_MERID',
 &END
