 &NAML
   TABCH(1)='H01200VERT.VELOC',
   TABCH(2)='H01100VERT.VELOC',
   TABCH(3)='H01000VERT.VELOC',
   TABCH(4)='H00900VERT.VELOC',
   TABCH(5)='H00800VERT.VELOC',
   TABCH(6)='H00700VERT.VELOC',
   TABCH(7)='H00600VERT.VELOC',
   TABCH(8)='H00500VERT.VELOC',
   TABCH(9)='H00400VERT.VELOC',
   TABCH(10)='H00300VERT.VELOC',
   TABCH(11)='H00200VERT.VELOC',
   TABCH(12)='H00100VERT.VELOC',
   TABCH(13)='H00050VERT.VELOC',
   TABCH(14)='H00002VERT.VELOC',
 &END
