 &NAML
   TABCH(1)='P85000VENT_MERID',
 &END
