 &NAML
   TABCH(1)='P00000VENT_MERID',
   TABCH(2)='P85000VENT_MERID',
   TABCH(3)='P70000VENT_MERID',
   TABCH(4)='P50000VENT_MERID',
   TABCH(5)='P40000VENT_MERID',
   TABCH(6)='P30000VENT_MERID',
   TABCH(7)='P20000VENT_MERID',
   TABCH(8)='P10000VENT_MERID',
 &END
