 &NAML
   TABCH(1)='P70000HUMI_RELAT',
 &END
