 &NAML
   TABCH(1)='P40000ASY_DST',
   TABCH(2)='P50000ASY_DST',
   TABCH(3)='P60000ASY_DST',
   TABCH(4)='P70000ASY_DST',
   TABCH(5)='P80000ASY_DST',
   TABCH(6)='P85000ASY_DST',
   TABCH(7)='P90000ASY_DST',
   TABCH(8)='P92500ASY_DST',
   TABCH(9)='P95000ASY_DST',
   TABCH(10)='P00000ASY_DST',
 &END
