 &NAML
   TABCH(1)='P50000ICE_CRYSTA',
   TABCH(2)='P70000ICE_CRYSTA',
   TABCH(3)='P85000ICE_CRYSTA',
   TABCH(4)='P00000ICE_CRYSTA',
 &END
