 &NAML
   TABCH(1)='P00000HUMI_RELAT',
 &END
