 &NAML
   TABCH(1)='P00000POT_VORTICIT',
   TABCH(2)='P85000POT_VORTICIT',
   TABCH(3)='P70000POT_VORTICIT',
   TABCH(4)='P50000POT_VORTICIT',
   TABCH(5)='P40000POT_VORTICIT',
   TABCH(6)='P30000POT_VORTICIT',
   TABCH(7)='P20000POT_VORTICIT',
   TABCH(8)='P10000POT_VORTICIT',
 &END
