 &NAML
   TABCH(1)='P50000VENT_ZONAL',
 &END
