 &NAML
   TABCH(1)='P50000VITESSE_VE',
   TABCH(2)='P70000VITESSE_VE',
   TABCH(3)='P85000VITESSE_VE',
   TABCH(4)='P00000VITESSE_VE',
 &END
