 &NAML
   TABCH(1)='P70000ZM_DST',
   TABCH(2)='P85000ZM_DST',
   TABCH(3)='P00000ZM_DST',
 &END
