 &NAML
   TABCH(1)='P50000GEOPOTENTI',
 &END
