 &NAML
   TABCH(1)='CLSMAXI.TEMPERAT',
 &END
