 &NAML
   TABCH(1)='P10000TEMPERATUR',
   TABCH(2)='P15000TEMPERATUR',
   TABCH(3)='P20000TEMPERATUR',
   TABCH(4)='P25000TEMPERATUR',
   TABCH(5)='P30000TEMPERATUR',
   TABCH(6)='P35000TEMPERATUR',
   TABCH(7)='P40000TEMPERATUR',
   TABCH(8)='P45000TEMPERATUR',
   TABCH(9)='P50000TEMPERATUR',
   TABCH(10)='P55000TEMPERATUR',
   TABCH(11)='P60000TEMPERATUR',
   TABCH(12)='P65000TEMPERATUR',
   TABCH(13)='P70000TEMPERATUR',
   TABCH(14)='P75000TEMPERATUR',
   TABCH(15)='P80000TEMPERATUR',
   TABCH(16)='P85000TEMPERATUR',
   TABCH(17)='P90000TEMPERATUR',
   TABCH(18)='P92500TEMPERATUR',
   TABCH(19)='P95000TEMPERATUR',
   TABCH(20)='P00000TEMPERATUR',
 &END
