 &NAML
   TABCH(1)='SURFNEBUL.HAUTE',
 &END
