 &NAML
   TABCH(1)='P50000VENT_ZONAL',
   TABCH(2)='P70000VENT_ZONAL',
   TABCH(3)='P85000VENT_ZONAL',
   TABCH(4)='P00000VENT_ZONAL',
 &END
