 &NAML
   TABCH(1)='SURFNEBUL.TOTALE',
 &END
