 &NAML
   TABCH(1)='P50000HUMI_RELAT',
   TABCH(2)='P70000HUMI_RELAT',
   TABCH(3)='P85000HUMI_RELAT',
   TABCH(4)='P00000HUMI_RELAT',
 &END
