 &NAML
   TABCH(1)='P85000GEOPOTENTI',
 &END
