 &NAML
   TABCH(1)='P00000SNOW',
   TABCH(2)='P85000SNOW',
   TABCH(3)='P70000SNOW',
   TABCH(4)='P50000SNOW',
   TABCH(5)='P40000SNOW',
   TABCH(6)='P30000SNOW',
   TABCH(7)='P20000SNOW',
   TABCH(8)='P10000SNOW',
 &END
