 &NAML
   TABCH(1)='P00000VERT.VELOC',
   TABCH(2)='P85000VERT.VELOC',
   TABCH(3)='P70000VERT.VELOC',
   TABCH(4)='P50000VERT.VELOC',
   TABCH(5)='P40000VERT.VELOC',
   TABCH(6)='P30000VERT.VELOC',
   TABCH(7)='P20000VERT.VELOC',
   TABCH(8)='P10000VERT.VELOC',
 &END
