 &NAML
   TABCH(1)='P10000GEOPOTENTI',
   TABCH(2)='P20000GEOPOTENTI',
   TABCH(3)='P30000GEOPOTENTI',
   TABCH(4)='P40000GEOPOTENTI',
   TABCH(5)='P50000GEOPOTENTI',
   TABCH(6)='P60000GEOPOTENTI',
   TABCH(7)='P70000GEOPOTENTI',
   TABCH(8)='P80000GEOPOTENTI',
   TABCH(9)='P85000GEOPOTENTI',
   TABCH(10)='P90000GEOPOTENTI',
   TABCH(11)='P92500GEOPOTENTI',
   TABCH(12)='P95000GEOPOTENTI',
   TABCH(13)='P00000GEOPOTENTI',
 &END
