 &NAML
   TABCH(1)='CLSMINI.TEMPERAT',
 &END
