 &NAML
   TABCH(1)='P50000VENT_MERID',
 &END
