 &NAML
   TABCH(1)='SURFNEBUL.CONVEC',
 &END
