 &NAML
   TABCH(1)='P00000VENT_ZONAL',
   TABCH(2)='P85000VENT_ZONAL',
   TABCH(3)='P70000VENT_ZONAL',
   TABCH(4)='P50000VENT_ZONAL',
   TABCH(5)='P40000VENT_ZONAL',
   TABCH(6)='P30000VENT_ZONAL',
   TABCH(7)='P20000VENT_ZONAL',
   TABCH(8)='P10000VENT_ZONAL',
 &END
