 &NAML
   TABCH(1)='H00002VENT_MERID',
   TABCH(2)='H00010VENT_MERID',
   TABCH(3)='H00050VENT_MERID',
   TABCH(4)='H00100VENT_MERID',
   TABCH(5)='H00250VENT_MERID',
   TABCH(6)='H00500VENT_MERID',
   TABCH(7)='H00750VENT_MERID',
   TABCH(8)='H01000VENT_MERID',
   TABCH(9)='H01250VENT_MERID',
   TABCH(10)='H01500VENT_MERID',
   TABCH(11)='H02000VENT_MERID',
   TABCH(12)='H02500VENT_MERID',
   TABCH(13)='H03000VENT_MERID',
   TABCH(14)='H04000VENT_MERID',
   TABCH(15)='H05000VENT_MERID',
   TABCH(16)='H06000VENT_MERID',
   TABCH(17)='H07000VENT_MERID',
   TABCH(18)='H08000VENT_MERID',
   TABCH(19)='H09000VENT_MERID',
   TABCH(20)='H10000VENT_MERID',
 &END

        
       
     
     
     
     
      
      
     
     
     
     
     
     
     
     
     
     
     
    

