 &NAML
   TABCH(1)='SURFPREC.NEI.CON',
 &END
