 &NAML
   TABCH(1)='P00000ISOT_PRESSURE',
   TABCH(2)='P85000ISOT_PRESSURE',
   TABCH(3)='P70000ISOT_PRESSURE',
   TABCH(4)='P50000ISOT_PRESSURE',
   TABCH(5)='P40000ISOT_PRESSURE',
   TABCH(6)='P30000ISOT_PRESSURE',
   TABCH(7)='P20000ISOT_PRESSURE',
   TABCH(8)='P10000ISOT_PRESSURE',
 &END
