 &NAML
   TABCH(1)='SURFEVAPOTRANSPI',
 &END
