 &NAML
   TABCH(1)='P00000FLX_DST',
 &END
