 &NAML
   TABCH(1)='P10000TEMPE_POTE',
   TABCH(2)='P15000TEMPE_POTE',
   TABCH(3)='P20000TEMPE_POTE',
   TABCH(4)='P25000TEMPE_POTE',
   TABCH(5)='P30000TEMPE_POTE',
   TABCH(6)='P35000TEMPE_POTE',
   TABCH(7)='P40000TEMPE_POTE',
   TABCH(8)='P45000TEMPE_POTE',
   TABCH(9)='P50000TEMPE_POTE',
   TABCH(10)='P55000TEMPE_POTE',
   TABCH(11)='P60000TEMPE_POTE',
   TABCH(12)='P65000TEMPE_POTE',
   TABCH(13)='P70000TEMPE_POTE',
   TABCH(14)='P75000TEMPE_POTE',
   TABCH(15)='P80000TEMPE_POTE',
   TABCH(16)='P85000TEMPE_POTE',
   TABCH(17)='P90000TEMPE_POTE',
   TABCH(18)='P92500TEMPE_POTE',
   TABCH(19)='P95000TEMPE_POTE',
   TABCH(20)='P00000TEMPE_POTE',
 &END

 H00002VENT_ZONAL       12684       3294847       F
 H00010VENT_ZONAL       12684       3307531       F
 H00050VENT_ZONAL       12684       3320215       F
 H00100VENT_ZONAL       12684       3332899       F
 H00250VENT_ZONAL       12684       3345583       F
 H00500VENT_ZONAL       12684       3358267       F
 H00750VENT_ZONAL       12684       3370951       F
 H01000VENT_ZONAL       12684       3383635       F
 H01250VENT_ZONAL       12684       3396319       F
 H01500VENT_ZONAL       12684       3409003       F
 H02000VENT_ZONAL       12684       3421687       F
 H02500VENT_ZONAL       12684       3434371       F
 H03000VENT_ZONAL       12684       3447055       F
 H04000VENT_ZONAL       12684       3459739       F
 H05000VENT_ZONAL       12684       3472423       F
 H06000VENT_ZONAL       12684       3485107       F
 H07000VENT_ZONAL       12684       3497791       F
 H08000VENT_ZONAL       12684       3510475       F
 H09000VENT_ZONAL       12684       3523159       F
 H10000VENT_ZONAL       12684       3535843       F

