 &NAML
   TABCH(1)='P50000CLOUD_WATE',
   TABCH(2)='P70000CLOUD_WATE',
   TABCH(3)='P85000CLOUD_WATE',
   TABCH(4)='P00000CLOUD_WATE',
 &END
