 &NAML
   TABCH(1)='P85000TEMPERATUR',
 &END
