 &NAML
   TABCH(1)='H00100VENT_ZONAL',
 &END
