 &NAML
   TABCH(1)='SURFPREC.EAU.GEC',
 &END
