 &NAML
   TABCH(1)='P00000TEMPE_POTENT',
   TABCH(2)='P85000TEMPE_POTENT',
   TABCH(3)='P70000TEMPE_POTENT',
   TABCH(4)='P50000TEMPE_POTENT',
   TABCH(5)='P40000TEMPE_POTENT',
   TABCH(6)='P30000TEMPE_POTENT',
   TABCH(7)='P20000TEMPE_POTENT',
   TABCH(8)='P10000TEMPE_POTENT',
 &END
