 &NAML
   TABCH(1)='P00000SSA_DST',
 &END
