 &NAML
   TABCH(1)='P00000ISOT_ALTIT',
   TABCH(2)='P85000ISOT_ALTIT',
   TABCH(3)='P70000ISOT_ALTIT',
   TABCH(4)='P50000ISOT_ALTIT',
   TABCH(5)='P40000ISOT_ALTIT',
   TABCH(6)='P30000ISOT_ALTIT',
   TABCH(7)='P20000ISOT_ALTIT',
   TABCH(8)='P10000ISOT_ALTIT',
 &END
