 &NAML
   TABCH(1)='P00000TEMPERATUR',
   TABCH(2)='P85000TEMPERATUR',
   TABCH(3)='P70000TEMPERATUR',
   TABCH(4)='P50000TEMPERATUR',
   TABCH(5)='P40000TEMPERATUR',
   TABCH(6)='P30000TEMPERATUR',
   TABCH(7)='P20000TEMPERATUR',
   TABCH(8)='P10000TEMPERATUR',
 &END
