 &NAML
   TABCH(1)='P50000CLOUD_FRAC',
   TABCH(2)='P70000CLOUD_FRAC',
   TABCH(3)='P85000CLOUD_FRAC',
   TABCH(4)='P00000CLOUD_FRAC',
 &END
