 &NAML
   TABCH(1)='P50000HUMI_RELAT',
 &END
