 &NAML
   TABCH(1)='SURFCAPE.POS.F00',
 &END
