 &NAML
   TABCH(1)='P00000CLOUD_FRACTI',
   TABCH(2)='P85000CLOUD_FRACTI',
   TABCH(3)='P70000CLOUD_FRACTI',
   TABCH(4)='P50000CLOUD_FRACTI',
   TABCH(5)='P40000CLOUD_FRACTI',
   TABCH(6)='P30000CLOUD_FRACTI',
   TABCH(7)='P20000CLOUD_FRACTI',
   TABCH(8)='P10000CLOUD_FRACTI',
 &END
