 &NAML
   TABCH(1)='P00000HUMI_RELAT',
   TABCH(2)='P85000HUMI_RELAT',
   TABCH(3)='P70000HUMI_RELAT',
   TABCH(4)='P50000HUMI_RELAT',
   TABCH(5)='P40000HUMI_RELAT',
   TABCH(6)='P30000HUMI_RELAT',
   TABCH(7)='P20000HUMI_RELAT',
   TABCH(8)='P10000HUMI_RELAT',
 &END
