 &NAML
   TABCH(1)='P50000POT_VORTIC',
   TABCH(2)='P70000POT_VORTIC',
   TABCH(3)='P85000POT_VORTIC',
   TABCH(4)='P00000POT_VORTIC',
 &END
