 &NAML
   TABCH(1)='P85000HUMI_RELAT',
 &END
