 &NAML
   TABCH(1)='CLSU.RAF.MOD.XFU',
 &END
