 &NAML
   TABCH(1)='CLSHUMI.SPECIFIQ',
 &END
