 &NAML
   TABCH(1)='P00000GEOPOTENTI',
   TABCH(2)='P85000GEOPOTENTI',
   TABCH(3)='P70000GEOPOTENTI',
   TABCH(4)='P50000GEOPOTENTI',
   TABCH(5)='P40000GEOPOTENTI',
   TABCH(6)='P30000GEOPOTENTI',
   TABCH(7)='P20000GEOPOTENTI',
   TABCH(8)='P10000GEOPOTENTI',
 &END
