 &NAML
   TABCH(1)='P00000GRAUPEL',
   TABCH(2)='P85000GRAUPEL',
   TABCH(3)='P70000GRAUPEL',
   TABCH(4)='P50000GRAUPEL',
   TABCH(5)='P40000GRAUPEL',
   TABCH(6)='P30000GRAUPEL',
   TABCH(7)='P20000GRAUPEL',
   TABCH(8)='P10000GRAUPEL',
 &END
